@<TRIPOS>MOLECULE
FMH 
   51    53     1     0     0
SMALL
bcc


@<TRIPOS>ATOM
      1 P          -13.1280    12.4430    -7.6300 p5       401 FMH       1.319900
      2 O1P        -12.8760    12.4100    -9.1140 o        401 FMH      -0.926500
      3 O2P        -12.0590    13.1590    -6.8580 o        401 FMH      -0.926500
      4 O3P        -13.3380    11.0360    -7.0790 o        401 FMH      -0.926500
      5 C5'        -14.9840    13.5120    -6.1210 c3       401 FMH       0.195400
      6 O5'        -14.5160    13.2580    -7.4320 os       401 FMH      -0.571200
      7 C4'        -14.7180    14.9380    -5.6470 c3       401 FMH       0.134100
      8 O4'        -13.3420    15.2110    -5.7150 oh       401 FMH      -0.695800
      9 C3'        -15.4710    15.9830    -6.4770 c3       401 FMH       0.121100
     10 O3'        -16.8610    15.7570    -6.3710 oh       401 FMH      -0.617800
     11 C2'        -15.1160    17.3940    -6.0300 c3       401 FMH       0.089100
     12 O2'        -15.6470    18.2950    -6.9800 oh       401 FMH      -0.634800
     13 C1'        -15.6490    17.7260    -4.6210 c3       401 FMH       0.018300
     14 N1         -17.0080    20.1180    -4.7330 nc       401 FMH      -0.507400
     15 C2         -17.6810    21.2840    -5.0570 cd       401 FMH       0.420000
     16 O2         -18.8550    21.2120    -5.4420 o        401 FMH      -0.475000
     17 N3         -17.0340    22.5070    -4.9610 ns       401 FMH      -0.612500
     18 C4         -15.7270    22.5910    -4.5160 c        401 FMH       0.719100
     19 C4A        -15.0660    21.4080    -4.1720 cd       401 FMH      -0.428900
     20 O4         -15.1470    23.6960    -4.4630 o        401 FMH      -0.782500
     21 C5A        -13.0770    20.2690    -3.5770 ca       401 FMH      -0.029300
     22 N5         -13.7640    21.4500    -3.7350 na       401 FMH      -0.147100
     23 C6         -11.7240    20.3480    -3.3060 ca       401 FMH      -0.182000
     24 C7         -10.9500    19.2070    -3.1910 ca       401 FMH      -0.122300
     25 C7M         -9.4870    19.3900    -2.9130 c3       401 FMH      -0.025800
     26 C8         -11.5590    17.9650    -3.3440 ca       401 FMH      -0.072300
     27 C8M        -10.7460    16.7070    -3.2200 c3       401 FMH      -0.058800
     28 C9         -12.9280    17.8840    -3.6110 ca       401 FMH      -0.154000
     29 C9A        -13.7040    19.0420    -3.7330 ca       401 FMH       0.035700
     30 C10        -15.7090    20.1740    -4.3090 cc       401 FMH       0.370100
     31 N10        -15.0650    18.9850    -4.0150 na       401 FMH      -0.168100
     32 HN3        -17.5170    23.3560    -5.2180 hn       401 FMH       0.298500
     33 HN5        -13.3270    22.3380    -3.5350 hn       401 FMH       0.210700
     34 HC2'       -14.0310    17.4940    -6.0240 h1       401 FMH       0.071700
     35 HC3'       -15.1810    15.8690    -7.5220 h1       401 FMH       0.077700
     36 HC4'       -15.0380    15.0240    -4.6080 h1       401 FMH      -0.001300
     37 HC6        -11.2540    21.3120    -3.1800 ha       401 FMH       0.105000
     38 HC9        -13.4000    16.9190    -3.7260 ha       401 FMH       0.204000
     39 HO2'       -15.4360    19.1950    -6.7210 ho       401 FMH       0.415000
     40 HO3'       -17.3330    16.4120    -6.8910 ho       401 FMH       0.389000
     41 HO4'       -13.1780    16.1090    -5.4160 ho       401 FMH       0.506000
     42 H1'1       -15.4600    16.8840    -3.9560 h1       401 FMH       0.072200
     43 H1'2       -16.7350    17.8130    -4.6570 h1       401 FMH       0.072200
     44 H5'1       -14.5210    12.8080    -5.4290 h1       401 FMH       0.006700
     45 H5'2       -16.0540    13.3080    -6.0730 h1       401 FMH       0.006700
     46 H7M1        -9.0040    18.4150    -2.8480 hc       401 FMH       0.019700
     47 H7M2        -9.0330    19.9670    -3.7190 hc       401 FMH       0.019700
     48 H7M3        -9.3600    19.9210    -1.9700 hc       401 FMH       0.019700
     49 H8M1       -11.3910    15.8410    -3.3700 hc       401 FMH       0.049033
     50 H8M2        -9.9580    16.7070    -3.9730 hc       401 FMH       0.049033
     51 H8M3       -10.2990    16.6590    -2.2270 hc       401 FMH       0.049033
@<TRIPOS>BOND
     1     1     2 1   
     2     1     3 1   
     3     1     4 1   
     4     1     6 1   
     5     5     6 1   
     6     5     7 1   
     7     5    44 1   
     8     5    45 1   
     9     7     8 1   
    10     7     9 1   
    11     7    36 1   
    12     8    41 1   
    13     9    10 1   
    14     9    11 1   
    15     9    35 1   
    16    10    40 1   
    17    11    12 1   
    18    11    13 1   
    19    11    34 1   
    20    12    39 1   
    21    13    31 1   
    22    13    42 1   
    23    13    43 1   
    24    14    15 2   
    25    14    30 1   
    26    15    16 1   
    27    15    17 1   
    28    17    18 1   
    29    17    32 1   
    30    18    19 1   
    31    18    20 2   
    32    19    22 1   
    33    19    30 2   
    34    21    22 1   
    35    21    23 ar  
    36    21    29 ar  
    37    22    33 1   
    38    23    24 ar  
    39    23    37 1   
    40    24    25 1   
    41    24    26 ar  
    42    25    46 1   
    43    25    47 1   
    44    25    48 1   
    45    26    27 1   
    46    26    28 ar  
    47    27    49 1   
    48    27    50 1   
    49    27    51 1   
    50    28    29 ar  
    51    28    38 1   
    52    29    31 1   
    53    30    31 1   
@<TRIPOS>SUBSTRUCTURE
     1 FMH         1 TEMP              0 ****  ****    0 ROOT
