@<TRIPOS>MOLECULE
OHP
   23    22     1     0     0
SMALL
bcc


@<TRIPOS>ATOM
      1 C1         -16.4490    22.8370    -1.2760 c3         1 OHP      -0.175400
      2 N1         -15.0740    20.4220    -0.4270 n2         1 OHP      -0.269200
      3 O1         -17.9960    18.7030     0.1070 os         1 OHP      -0.468900
      4 C2         -17.1290    21.4970    -1.4840 c          1 OHP       0.521800
      5 O2         -18.1780    21.4070    -2.0380 o          1 OHP      -0.485100
      6 C3         -16.4080    20.2800    -0.9530 ce         1 OHP       0.177300
      7 O3         -16.9330    18.1260    -1.7910 o          1 OHP      -0.517000
      8 C4         -17.1120    18.9390    -0.9400 c          1 OHP       0.542800
      9 O4         -14.6140    19.1700     0.0130 oh         1 OHP      -0.280500
     10 C5         -17.3650    23.9780    -1.7020 c3         1 OHP      -0.089100
     11 C6         -18.3900    17.3710     0.2390 c3         1 OHP       0.144400
     12 C7         -18.5060    17.0790     1.7320 c3         1 OHP      -0.105100
     13 H01        -15.5450    22.8690    -1.8840 hc         1 OHP       0.083200
     14 H02        -16.1990    22.9520    -0.2210 hc         1 OHP       0.083200
     15 H03        -14.4650    18.5990    -0.7440 ho         1 OHP       0.425000
     16 H04        -18.2780    23.9510    -1.1080 hc         1 OHP       0.046033
     17 H05        -16.8580    24.9300    -1.5450 hc         1 OHP       0.046033
     18 H06        -17.6150    23.8690    -2.7570 hc         1 OHP       0.046033
     19 H07        -17.6650    16.7060    -0.2290 h1         1 OHP       0.059200
     20 H08        -19.3530    17.2160    -0.2480 h1         1 OHP       0.059200
     21 H09        -19.5570    17.0720     2.0200 hc         1 OHP       0.052700
     22 H10        -18.0640    16.1060     1.9480 hc         1 OHP       0.052700
     23 H11        -17.9810    17.8500     2.2960 hc         1 OHP       0.052700
@<TRIPOS>BOND
     1     1     4 1   
     2     1    10 1   
     3     1    13 1   
     4     1    14 1   
     5     2     9 1   
     6     4     5 2   
     7     4     6 1   
     8     2     6 2   
     9     6     8 1   
    10     3     8 1   
    11     7     8 2   
    12     9    15 1   
    13    10    16 1   
    14    10    17 1   
    15    10    18 1   
    16     3    11 1   
    17    11    12 1   
    18    11    19 1   
    19    11    20 1   
    20    12    21 1   
    21    12    22 1   
    22    12    23 1   
@<TRIPOS>SUBSTRUCTURE
     1 OHP         1 TEMP              0 ****  ****    0 ROOT
