# created with PyMOL 2.5.2
@<TRIPOS>MOLECULE
OHP
23 22 1                 
SMALL
USER_CHARGES
@<TRIPOS>ATOM
1	  C1	-16.449	22.837	-1.276	C.3	1	OHP601	0.000	
2	  N1	-15.074	20.422	-0.427	N.3	1	OHP601	0.000	
3	  O1	-17.996	18.703	0.107	O.3	1	OHP601	0.000	
4	  C2	-17.129	21.497	-1.484	C.2	1	OHP601	0.000	
5	  O2	-18.178	21.407	-2.038	O.2	1	OHP601	0.000	
6	  C3	-16.408	20.280	-0.953	C.3	1	OHP601	0.000	
7	  O3	-16.933	18.126	-1.791	O.co2	1	OHP601	0.000	
8	  C4	-17.112	18.939	-0.940	C.2	1	OHP601	0.000	
9	  O4	-14.614	19.170	0.013	O.3	1	OHP601	0.000	
10	  C5	-17.365	23.978	-1.702	C.3	1	OHP601	0.000	
11	  C6	-18.390	17.371	0.239	C.3	1	OHP601	0.000	
12	  C7	-18.506	17.079	1.732	C.3	1	OHP601	0.000	
13	 H01	-15.545	22.869	-1.884	 H	1	OHP601	0.000	
14	 H02	-16.199	22.952	-0.221	 H	1	OHP601	0.000	
15	 H03	-14.465	18.599	-0.744	 H	1	OHP601	0.000	
16	 H04	-18.278	23.951	-1.108	 H	1	OHP601	0.000	
17	 H05	-16.858	24.930	-1.545	 H	1	OHP601	0.000	
18	 H06	-17.615	23.869	-2.757	 H	1	OHP601	0.000	
19	 H07	-17.665	16.706	-0.229	 H	1	OHP601	0.000	
20	 H08	-19.353	17.216	-0.248	 H	1	OHP601	0.000	
21	 H09	-19.557	17.072	2.020	 H	1	OHP601	0.000	
22	 H10	-18.064	16.106	1.948	 H	1	OHP601	0.000	
23	 H11	-17.981	17.850	2.296	 H	1	OHP601	0.000	
@<TRIPOS>BOND
1 1 4 1
2 1 10 1
3 1 13 1
4 1 14 1
5 2 9 1
6 4 5 2
7 4 6 1
8 2 6 2
9 6 8 1
10 3 8 1
11 7 8 2
12 9 15 1
13 10 16 1
14 10 17 1
15 10 18 1
16 3 11 1
17 11 12 1
18 11 19 1
19 11 20 1
20 12 21 1
21 12 22 1
22 12 23 1
@<TRIPOS>SUBSTRUCTURE
1	OHP601	1	GROUP	1 A	OHP
